Version,
9.5;
SimulationControl,
Yes,
Yes,
Yes,
No,
Yes,
No,
1;
Building,
Building 1,
358.19250493714,
,
,
,
,
25,
6;
ShadowCalculation,
PolygonClipping,
Periodic,
20,
15000,
SutherlandHodgman,
;
SurfaceConvectionAlgorithm:Inside,
TARP;
SurfaceConvectionAlgorithm:Outside,
DOE-2;
HeatBalanceAlgorithm,
ConductionTransferFunction,
2000,
0.00000001,
1000;
ZoneAirHeatBalanceAlgorithm,
AnalyticalSolution;
ZoneAirContaminantBalance,
No,
,
No;
ZoneCapacitanceMultiplier:ResearchSpecial,
CAPA_TZ1,
TZ1,
1,
1,
1,
1;
ZoneCapacitanceMultiplier:ResearchSpecial,
CAPA_TZ2,
TZ2,
65,
1,
1,
1;
ZoneCapacitanceMultiplier:ResearchSpecial,
CAPA_TZ3,
TZ3,
20,
1,
1,
1;
ZoneCapacitanceMultiplier:ResearchSpecial,
CAPA_TZ4,
TZ4,
1,
1,
1,
1;
ZoneCapacitanceMultiplier:ResearchSpecial,
CAPA_TZ5,
TZ5,
5,
1,
1,
1;
ZoneCapacitanceMultiplier:ResearchSpecial,
CAPA_TZ6,
TZ6,
1,
1,
1,
1;
ZoneCapacitanceMultiplier:ResearchSpecial,
CAPA_TZ7,
TZ7,
1,
1,
1,
1;
ZoneCapacitanceMultiplier:ResearchSpecial,
CAPA_TZ8,
TZ8,
20,
1,
1,
1;
ZoneCapacitanceMultiplier:ResearchSpecial,
CAPA_TZ9,
TZ9,
15,
1,
1,
1;
ZoneCapacitanceMultiplier:ResearchSpecial,
CAPA_TZ10,
TZ10,
50,
1,
1,
1;
ZoneCapacitanceMultiplier:ResearchSpecial,
CAPA_TZ11,
TZ11,
40,
1,
1,
1;
ZoneCapacitanceMultiplier:ResearchSpecial,
CAPA_TZ12,
TZ12,
35,
1,
1,
1;
ZoneCapacitanceMultiplier:ResearchSpecial,
CAPA_TZ13,
TZ13,
1,
1,
1,
1;
Timestep,
4;
ConvergenceLimits,
1,
25;
Site:Location,
GRC SABINA-NTUA-SQL WMO#=167160,
38.163412,
24.008573,
2,
10;
SizingPeriod:DesignDay,
Summer Design Day in Sitio (O1-O1:31-12) Jul,
7,
15,
SummerDesignDay,
36.8,
9.9,
,
,
WetBulb,
22.2,
,
,
,
,
99784.9,
0,
0,
No,
No,
Yes,
ASHRAEClearSky,
,
,
,
,
0.98;
SizingPeriod:DesignDay,
Summer Design Day in Sitio (O1-O1:31-12) Aug,
8,
15,
SummerDesignDay,
35.9,
9.5,
,
,
WetBulb,
21.4,
,
,
,
,
99784.9,
0,
0,
No,
No,
Yes,
ASHRAEClearSky,
,
,
,
,
0.98;
SizingPeriod:DesignDay,
Summer Design Day in Sitio (O1-O1:31-12) Sep,
9,
15,
SummerDesignDay,
32.2,
8.2,
,
,
WetBulb,
20.7,
,
,
,
,
99784.9,
0,
0,
No,
No,
Yes,
ASHRAEClearSky,
,
,
,
,
0.98;
SizingPeriod:DesignDay,
Winter Design Day in Sitio (O1-O1:31-12),
1,
15,
WinterDesignDay,
3.8,
0,
,
,
WetBulb,
3.8,
,
,
,
,
99784.9,
14.6,
0,
No,
No,
No,
,
,
,
,
,
0;
RUNPERIOD, 
All_year,
1,
1,
,
1,
30,
,
 ,
No,
No,
Yes,
Yes,
Yes,
;
ScheduleTypeLimits,
Fractional,
0,
1,
Continuous;
ScheduleTypeLimits,
ActivityLevel,
0,
,
Continuous,
activitylevel;
ScheduleTypeLimits,
ActivityLevel 12,
0,
,
Continuous,
activitylevel;
ScheduleTypeLimits,
ActivityLevel 13,
0,
,
Continuous,
activitylevel;
ScheduleTypeLimits,
ActivityLevel 5,
0,
,
Continuous,
activitylevel;
ScheduleTypeLimits,
Capacity,
0,
,
Continuous,
capacity;
ScheduleTypeLimits,
Any Number;
ScheduleTypeLimits,
DeltaTemperature,
,
,
Continuous,
deltatemperature;
ScheduleTypeLimits,
Dimensionless,
,
,
Continuous;
ScheduleTypeLimits,
Dimensionless 1,
-1,
1,
Continuous;
ScheduleTypeLimits,
Dimensionless 2,
0,
1,
Continuous,
dimensionless;
ScheduleTypeLimits,
Fraction,
0,
1,
CONTINUOUS;
ScheduleTypeLimits,
OnOff,
0,
1,
Discrete,
availability;
ScheduleTypeLimits,
Percent,
0,
100,
Continuous,
percent;
ScheduleTypeLimits,
Temperature 11,
,
,
Continuous,
temperature;
ScheduleTypeLimits,
Temperature 3,
,
,
Continuous,
temperature;
ScheduleTypeLimits,
Temperature 36,
,
,
Continuous,
temperature;
ScheduleTypeLimits,
Temperature 37,
,
,
Continuous,
temperature;
ScheduleTypeLimits,
Temperature 4,
,
,
Continuous,
temperature;
ScheduleTypeLimits,
Temperature 5,
,
,
Continuous,
temperature;
ScheduleTypeLimits,
Velocity,
0,
,
Continuous,
velocity;
ScheduleTypeLimits,
Control Type,
0,
4,
Discrete;
ScheduleTypeLimits,
TZ1 Thermostat Schedule Type Limits,
0,
4,
DISCRETE;
ScheduleTypeLimits,
TZ2 Thermostat Schedule Type Limits,
0,
4,
DISCRETE;
ScheduleTypeLimits,
TZ3 Thermostat Schedule Type Limits,
0,
4,
DISCRETE;
ScheduleTypeLimits,
TZ4 Thermostat Schedule Type Limits,
0,
4,
DISCRETE;
ScheduleTypeLimits,
TZ5 Thermostat Schedule Type Limits,
0,
4,
DISCRETE;
ScheduleTypeLimits,
TZ6 Thermostat Schedule Type Limits,
0,
4,
DISCRETE;
ScheduleTypeLimits,
TZ7 Thermostat Schedule Type Limits,
0,
4,
DISCRETE;
ScheduleTypeLimits,
TZ8 Thermostat Schedule Type Limits,
0,
4,
DISCRETE;
ScheduleTypeLimits,
TZ9 Thermostat Schedule Type Limits,
0,
4,
DISCRETE;
ScheduleTypeLimits,
TZ10 Thermostat Schedule Type Limits,
0,
4,
DISCRETE;
ScheduleTypeLimits,
TZ11 Thermostat Schedule Type Limits,
0,
4,
DISCRETE;
ScheduleTypeLimits,
TZ12 Thermostat Schedule Type Limits,
0,
4,
DISCRETE;
ScheduleTypeLimits,
TZ13 Thermostat Schedule Type Limits,
0,
4,
DISCRETE;
ScheduleTypeLimits,
Temperature,
-50,
100,
CONTINUOUS;
Schedule:Day:Interval,
ALL_DAY,
Any Number,
No,
24:00,
1;
Schedule:Day:Interval,
Day_17_20_17degrees_Weekday,
Temperature,
No,
07:00,
17,
23:00,
20,
24:00,
17;
Schedule:Day:Interval,
Day_27_35_25_27degrees,
Temperature,
No,
07:00,
27,
15:00,
35,
23:00,
25,
24:00,
27;
Schedule:Day:Interval,
Day_17_20_17degrees_Saturday,
Temperature,
No,
07:00,
17,
14:00,
20,
24:00,
17;
Schedule:Day:Interval,
Day_25degrees,
Temperature,
No,
24:00,
25;
Schedule:Day:Interval,
Day_20degrees,
Temperature,
No,
24:00,
20;
Schedule:Day:Interval,
Day_0degrees,
Temperature,
No,
24:00,
0;
Schedule:Day:Interval,
Day_35degrees,
Temperature,
No,
24:00,
35;
Schedule:Day:Interval,
MPC_day,
Temperature,
No,
00:10,
17,
00:20,
17,
00:30,
17,
00:40,
17,
00:50,
17,
01:00,
17,
01:10,
17,
01:20,
17,
01:30,
17,
01:40,
17,
01:50,
17,
02:00,
17,
02:10,
17,
02:20,
17,
02:30,
17,
02:40,
17,
02:50,
17,
03:00,
17,
03:10,
17,
03:20,
17,
03:30,
17,
03:40,
17,
03:50,
17,
04:00,
17,
04:10,
17,
04:20,
17,
04:30,
17,
04:40,
17,
04:50,
17,
05:00,
17,
05:10,
17,
05:20,
17,
05:30,
17,
05:40,
17,
05:50,
17,
06:00,
17,
06:10,
17,
06:20,
17,
06:30,
17,
06:40,
17,
06:50,
17,
07:00,
17,
07:10,
17,
07:20,
17,
07:30,
17,
07:40,
17,
07:50,
17,
08:00,
17,
08:10,
25,
08:20,
25,
08:30,
25,
08:40,
25,
08:50,
25,
09:00,
25,
09:10,
25,
09:20,
25,
09:30,
25,
09:40,
25,
09:50,
25,
10:00,
25,
10:10,
25,
10:20,
25,
10:30,
25,
10:40,
25,
10:50,
25,
11:00,
25,
11:10,
25,
11:20,
25,
11:30,
25,
11:40,
25,
11:50,
25,
12:00,
25,
12:10,
25,
12:20,
25,
12:30,
25,
12:40,
25,
12:50,
25,
13:00,
25,
13:10,
25,
13:20,
25,
13:30,
25,
13:40,
25,
13:50,
25,
14:00,
25,
14:10,
25,
14:20,
25,
14:30,
25,
14:40,
25,
14:50,
25,
15:00,
25,
15:10,
25,
15:20,
25,
15:30,
25,
15:40,
25,
15:50,
25,
16:00,
25,
16:10,
25,
16:20,
25,
16:30,
25,
16:40,
25,
16:50,
25,
17:00,
25,
17:10,
25,
17:20,
25,
17:30,
25,
17:40,
25,
17:50,
25,
18:00,
25,
18:10,
25,
18:20,
25,
18:30,
25,
18:40,
25,
18:50,
25,
19:00,
25,
19:10,
25,
19:20,
25,
19:30,
25,
19:40,
25,
19:50,
25,
20:00,
25,
20:10,
25,
20:20,
25,
20:30,
25,
20:40,
25,
20:50,
25,
21:00,
25,
21:10,
25,
21:20,
25,
21:30,
25,
21:40,
25,
21:50,
25,
22:00,
25,
22:10,
25,
22:20,
25,
22:30,
25,
22:40,
25,
22:50,
25,
23:00,
25,
23:10,
17,
23:20,
17,
23:30,
17,
23:40,
17,
23:50,
17,
24:00,
17;
Schedule:Week:Daily,
ALL_WEEK,
ALL_DAY,
ALL_DAY,
ALL_DAY,
ALL_DAY,
ALL_DAY,
ALL_DAY,
ALL_DAY,
ALL_DAY,
ALL_DAY,
ALL_DAY,
ALL_DAY,
ALL_DAY;
Schedule:Week:Daily,
HTG_Week_Winter,
Day_0degrees,
Day_17_20_17degrees_Weekday,
Day_17_20_17degrees_Weekday,
Day_17_20_17degrees_Weekday,
Day_17_20_17degrees_Weekday,
Day_17_20_17degrees_Weekday,
Day_17_20_17degrees_Saturday,
Day_0degrees,
Day_25degrees,
Day_20degrees,
Day_0degrees,
Day_0degrees;
Schedule:Week:Daily,
CLG_Week_Summer,
Day_35degrees,
Day_27_35_25_27degrees,
Day_27_35_25_27degrees,
Day_27_35_25_27degrees,
Day_27_35_25_27degrees,
Day_27_35_25_27degrees,
Day_27_35_25_27degrees,
Day_35degrees,
Day_25degrees,
Day_20degrees,
Day_35degrees,
Day_35degrees;
Schedule:Week:Daily,
HTG_Week_Summer,
Day_0degrees,
Day_0degrees,
Day_0degrees,
Day_0degrees,
Day_0degrees,
Day_0degrees,
Day_0degrees,
Day_0degrees,
Day_25degrees,
Day_20degrees,
Day_0degrees,
Day_0degrees;
Schedule:Week:Daily,
CLG_Week_Winter,
Day_35degrees,
Day_35degrees,
Day_35degrees,
Day_35degrees,
Day_35degrees,
Day_35degrees,
Day_35degrees,
Day_35degrees,
Day_25degrees,
Day_20degrees,
Day_35degrees,
Day_35degrees;
Schedule:Week:Daily,
MPC_Week,
MPC_day,
MPC_day,
MPC_day,
MPC_day,
MPC_day,
MPC_day,
MPC_day,
MPC_day,
MPC_day,
MPC_day,
MPC_day,
MPC_day;
Schedule:Year,
ALL_YEAR,
OnOff,
ALL_WEEK,
1,
1,
12,
31;
Schedule:Year,
HTG_Setpoint,
Temperature,
HTG_Week_Winter,
1,
1,
1,
17,
MPC_Week,
1,
18,
1,
20,
HTG_Week_Winter,
1,
21,
5,
31,
HTG_Week_Summer,
6,
1,
9,
30,
HTG_Week_Winter,
10,
1,
12,
31;
Schedule:Year,
CLG_Setpoint,
Temperature,
CLG_Week_Winter,
1,
1,
1,
17,
MPC_Week,
1,
18,
1,
20,
CLG_Week_Winter,
1,
21,
5,
31,
CLG_Week_Summer,
6,
1,
9,
30,
CLG_Week_Winter,
10,
1,
12,
31;
Schedule:Compact,
Zone Control Type Sched,
Control Type,
Through: 12/31,
For: AllDays,
Until: 24:00,
4;
Schedule:Compact,
On,
Any Number,
Through: 12/31,
For: AllDays,
Until: 24:00,
1;
Schedule:Compact,
On 24/7,
Any Number,
Through: 12/31,
For: AllDays,
Until: 24:00,
1;
Schedule:Compact,
Off,
Any Number,
Through: 12/31,
For: AllDays,
Until: 24:00,
0;
Schedule:Compact,
Off 24/7,
Any Number,
Through: 12/31,
For: AllDays,
Until: 24:00,
0;
Schedule:Compact,
Heating high water temperature schedule: Always 50.00,
Any Number,
Through: 12/31,
For: AllDays,
Until: 24:00,
50;
Schedule:Compact,
Domestic hot water setpoint temperature: Always 55.00,
Any Number,
Through: 12/31,
For: AllDays,
Until: 24:00,
55;
Schedule:Compact,
Chilled water flow set point temperature: Always 12 C,
Any Number,
Through: 12/31,
For: AllDays,
Until: 24:00,
12;
Schedule:Compact,
Hot water setpoint temperature: Always 46.00,
Any Number,
Through: 12/31,
For: AllDays,
Until: 24:00,
46;
Schedule:Compact,
Chilled water flow set point temperature,
Any Number,
Through: 12/31,
For: AllDays,
Until: 24:00,
13.5;
Schedule:Compact,
Hot water flow set point temperature,
Any Number,
Through: 12/31,
For: AllDays,
Until: 7:00,
8,
Until: 23:00,
38.54,
Until: 24:00,
8;
Schedule:Compact,
VRV_MASTER_AVAIL,
Any Number,
Through: 12/31,
For: AllDays,
Until: 24:00,
1;
Schedule:Compact,
VRV_MASTER_OPER,
Any Number,
Through: 5/31,
For: AllDays,
Until: 24:00,
0,
Through: 9/30,
For: AllDays,
Until: 24:00,
1,
Through: 12/31,
For: AllDays,
Until: 24:00,
0;
Schedule:Compact,
VRV_COOL_OPER,
Any Number,
Through: 5/31,
For: AllDays,
Until: 24:00,
0,
Through: 9/30,
For: AllDays,
Until: 24:00,
1,
Through: 12/31,
For: AllDays,
Until: 24:00,
0;
Schedule:Compact,
VRV_HEAT_OPER,
Any Number,
Through: 5/31,
For: AllDays,
Until: 24:00,
1,
Through: 9/30,
For: AllDays,
Until: 24:00,
0,
Through: 12/31,
For: AllDays,
Until: 24:00,
1;
Schedule:Compact,
AHU02 set point temperature0,
Any Number,
Through: 5/31,
For: AllDays,
Until: 24:00,
18.8,
Through: 9/30,
For: AllDays,
Until: 24:00,
22.3,
Through: 12/31,
For: AllDays,
Until: 24:00,
18.8;
Schedule:Compact,
AHU02_AVAIL0,
Any Number,
Through: 5/31,
For: AllDays,
Until: 7:00,
0,
Until: 23:00,
1,
Until: 24:00,
0,
Through: 9/30,
For: AllDays,
Until: 7:00,
1,
Until: 15:00,
0,
Until: 23:00,
1,
Until: 24:00,
1,
Through: 12/31,
For: AllDays,
Until: 7:00,
0,
Until: 23:00,
1,
Until: 24:00,
0;
Schedule:Compact,
AHU02_AVAIL,
Any Number,
Through: 12/31,
For: AllDays,
Until: 24:00,
1;
Schedule:Compact,
LOADS_LIGHT,
Any Number,
Through: 12/31,
For: Weekdays,
Until: 8:00,
0,
Until: 9:00,
.8,
Until: 17:00,
1,
Until: 18:00,
.9,
Until: 24:00,
0,
For: Weekends Holidays,
Until: 24:00,
0,
For: AllOtherDays,
Until: 24:00,
0;
Schedule:Compact,
LOADS_OUTLETS,
Any Number,
Through: 12/31,
For: Weekdays,
Until: 9:30,
0,
Until: 17:00,
1,
Until: 24:00,
0,
For: Weekends Holidays,
Until: 24:00,
0,
For: AllOtherDays,
Until: 24:00,
0;
Schedule:Compact,
GROUND_TEMP,
Any Number,
Through: 1/31,
For: AllDays,
Until: 24:00,
16,
Through: 2/28,
For: AllDays,
Until: 24:00,
16.5,
Through: 3/31,
For: AllDays,
Until: 24:00,
19,
Through: 4/30,
For: AllDays,
Until: 24:00,
21,
Through: 5/31,
For: AllDays,
Until: 24:00,
21.5,
Through: 6/30,
For: AllDays,
Until: 24:00,
21.75,
Through: 7/31,
For: AllDays,
Until: 24:00,
21,
Through: 8/31,
For: AllDays,
Until: 24:00,
21,
Through: 9/30,
For: AllDays,
Until: 24:00,
21,
Through: 10/31,
For: AllDays,
Until: 24:00,
22.75,
Through: 11/30,
For: AllDays,
Until: 24:00,
21.5,
Through: 12/31,
For: AllDays,
Until: 24:00,
19;
Schedule:Compact,
AHU01_SUPFLOWRATE0,
Any Number,
Through: 5/31,
For: AllDays,
Until: 7:00,
0,
Until: 23:00,
1,
Until: 24:00,
0,
Through: 9/30,
For: AllDays,
Until: 7:00,
1,
Until: 15:00,
0,
Until: 23:00,
1,
Until: 24:00,
1,
Through: 12/31,
For: AllDays,
Until: 7:00,
0,
Until: 23:00,
1,
Until: 24:00,
0;
Schedule:Compact,
AHU01_SUPFLOWRATE1,
Any Number,
Through: 12/31,
For: AllDays,
Until: 24:00,
1;
Schedule:Compact,
AHU01_AVAIL0,
Any Number,
Through: 5/31,
For: AllDays,
Until: 7:00,
0,
Until: 23:00,
1,
Until: 24:00,
0,
Through: 9/30,
For: AllDays,
Until: 7:00,
1,
Until: 15:00,
0,
Until: 23:00,
1,
Until: 24:00,
1,
Through: 12/31,
For: AllDays,
Until: 7:00,
0,
Until: 23:00,
1,
Until: 24:00,
0;
Schedule:Compact,
AHU01_AVAIL,
Any Number,
Through: 12/31,
For: AllDays,
Until: 24:00,
1;
Schedule:Compact,
HP_COOL_AVAIL,
Any Number,
Through: 5/31,
For: AllDays,
Until: 24:00,
0,
Through: 9/30,
For: AllDays,
Until: 24:00,
1,
Through: 12/31,
For: AllDays,
Until: 24:00,
0;
Schedule:Compact,
HP_HEAT_AVAIL,
Any Number,
Through: 5/31,
For: AllDays,
Until: 24:00,
1,
Through: 9/30,
For: AllDays,
Until: 24:00,
0,
Through: 12/31,
For: AllDays,
Until: 24:00,
1;
Schedule:Compact,
HP_HEAT_OPER0,
Any Number,
Through: 5/31,
For: AllDays,
Until: 7:00,
0,
Until: 23:00,
1,
Until: 24:00,
0,
Through: 9/30,
For: AllDays,
Until: 7:00,
0,
Until: 15:00,
0,
Until: 23:00,
0,
Until: 24:00,
0,
Through: 12/31,
For: AllDays,
Until: 7:00,
0,
Until: 23:00,
1,
Until: 24:00,
0;
Schedule:Compact,
HP_HEAT_OPER,
Any Number,
Through: 5/31,
For: AllDays,
Until: 7:00,
1,
Until: 23:00,
1,
Until: 24:00,
1,
Through: 9/30,
For: AllDays,
Until: 7:00,
0,
Until: 15:00,
0,
Until: 23:00,
0,
Until: 24:00,
0,
Through: 12/31,
For: AllDays,
Until: 7:00,
1,
Until: 23:00,
1,
Until: 24:00,
1;
Schedule:Constant,
Always On Discrete,
Fractional,
1;
Schedule:Constant,
Always Off Discrete,
Fractional,
0;
Schedule:Constant,
Always On Continuous,
Fractional,
1;
Schedule:Constant,
GROUND_surface_temp_TZ1,
Temperature,
23;
Schedule:Constant,
GROUND_surface_temp_TZ2,
Temperature,
23;
Schedule:Constant,
GROUND_surface_temp_TZ3,
Temperature,
23;
Schedule:Constant,
GROUND_surface_temp_TZ4,
Temperature,
23;
Schedule:Constant,
GROUND_surface_temp_TZ5,
Temperature,
23;
Schedule:Constant,
GROUND_surface_temp_TZ13,
Temperature,
23;
Schedule:Constant,
HOT_WATER_ONSP0,
Temperature,
38.54;
Schedule:Constant,
HOT_WATER_OFFSP,
Temperature,
8;
Schedule:Constant,
COOL_WATER_OFF_SP,
Temperature,
15;
Material,
ACERO_ESTRUCTURAL,
Smooth,
0.005,
50,
7800,
450,
0.9,
0.7,
0.7;
Material,
AZULEJO,
VerySmooth,
0.015,
1.3,
2300,
840,
0.9,
0.7,
0.7;
Material,
CEMENTO_PULIDO,
VerySmooth,
0.05,
1.65,
2150,
1000,
0.9,
0.7,
0.7;
Material,
EPS_AISLAMIENTO,
MediumRough,
0.1,
0.029,
30,
1000,
0.9,
0.7,
0.7;
Material,
GRAVA_30CM,
VeryRough,
0.3,
2,
2200,
1000,
0.9,
0.7,
0.7;
Material,
HORMIGON_ARMADO_PILAR,
Rough,
0.5,
2.3,
2400,
1000,
0.9,
0.7,
0.7;
Material,
HORMIGON_ARMADO_SUELO,
Rough,
0.09,
2.3,
2400,
1000,
0.9,
0.7,
0.7;
Material,
HORMIGON_ARMADO_TERRENO,
Rough,
0.2,
2.3,
2400,
1000,
0.9,
0.7,
0.7;
Material,
LADRILLO_TRIPLE_HUECO,
MediumRough,
0.09,
0.434,
920,
1000,
0.9,
0.7,
0.7;
Material,
LANA_DE_ROCA,
MediumRough,
0.05,
0.031,
40,
1000,
0.9,
0.7,
0.7;
Material,
MADERA_LAMINADA,
Smooth,
0.015,
0.138,
350,
1000,
0.9,
0.7,
0.7;
Material,
MORTERO_CEMENTO_FACHADA_TZ1,
MediumRough,
0.025,
0.8,
1525,
1000,
0.9,
0.7,
0.7;
Material,
MORTERO_CEMENTO_FACHADA_TZ2,
MediumRough,
0.025,
0.8,
1525,
1000,
0.9,
0.7,
0.7;
Material,
MORTERO_CEMENTO_FACHADA_TZ3,
MediumRough,
0.025,
0.8,
1525,
1000,
0.9,
0.7,
0.7;
Material,
MORTERO_CEMENTO_FACHADA_TZ4,
MediumRough,
0.025,
0.8,
1525,
1000,
0.9,
0.7,
0.7;
Material,
MORTERO_CEMENTO_FACHADA_TZ5,
MediumRough,
0.025,
0.8,
1525,
1000,
0.9,
0.7,
0.7;
Material,
MORTERO_CEMENTO_FACHADA_TZ6,
MediumRough,
0.025,
0.8,
1525,
1000,
0.9,
0.7,
0.7;
Material,
MORTERO_CEMENTO_FACHADA_TZ7,
MediumRough,
0.025,
0.8,
1525,
1000,
0.9,
0.7,
0.7;
Material,
MORTERO_CEMENTO_FACHADA_TZ8,
MediumRough,
0.025,
0.8,
1525,
1000,
0.9,
0.7,
0.7;
Material,
MORTERO_CEMENTO_FACHADA_TZ9,
MediumRough,
0.025,
0.8,
1525,
1000,
0.9,
0.7,
0.7;
Material,
MORTERO_CEMENTO_FACHADA_TZ10,
MediumRough,
0.025,
0.8,
1525,
1000,
0.9,
0.7,
0.7;
Material,
MORTERO_CEMENTO_FACHADA_TZ11,
MediumRough,
0.025,
0.8,
1525,
1000,
0.9,
0.7,
0.7;
Material,
MORTERO_CEMENTO_FACHADA_TZ12,
MediumRough,
0.025,
0.8,
1525,
1000,
0.9,
0.7,
0.7;
Material,
MORTERO_CEMENTO_FACHADA_TZ13,
MediumRough,
0.025,
0.8,
1525,
1000,
0.9,
0.7,
0.7;
Material,
MORTERO_CEMENTO_SUELO,
MediumRough,
0.04,
0.8,
1525,
1000,
0.9,
0.7,
0.7;
Material,
MORTERO_YESO,
Smooth,
0.1,
0.8,
1600,
1000,
0.9,
0.7,
0.7;
Material,
PANEL_CEMENTO,
MediumRough,
0.06,
0.346,
1500,
1000,
0.9,
0.7,
0.7;
Material,
PANEL_SANDWICH_TZ7,
Smooth,
0.03,
0.025,
40,
500,
0.9,
0.5,
0.7;
Material,
PANEL_SANDWICH_TZ8,
Smooth,
0.03,
0.025,
40,
500,
0.9,
0.7,
0.7;
Material,
PANEL_SANDWICH_TZ9,
Smooth,
0.03,
0.025,
40,
500,
0.9,
0.7,
0.7;
Material,
PANEL_SANDWICH_TZ10,
Smooth,
0.03,
0.025,
40,
500,
0.9,
0.7,
0.7;
Material,
PANEL_SANDWICH_TZ11,
Smooth,
0.03,
0.025,
40,
500,
0.9,
0.7,
0.7;
Material,
PANEL_SANDWICH_TZ12,
Smooth,
0.03,
0.025,
40,
500,
0.9,
0.5,
0.7;
Material,
PANEL_YESO,
MediumRough,
0.015,
0.25,
825,
1000,
0.9,
0.7,
0.7;
Material,
PUERTA,
MediumRough,
0.05,
0.24,
825,
1600,
0.9,
0.7,
0.7;
Material,
Air Wall Material,
MediumSmooth,
0.01,
0.6,
800,
1000,
0.95,
0.7,
0.7;
Material,
Air Wall Material_2,
VerySmooth,
0.0001,
2000,
1,
2000,
0.95,
0.7,
0.7;
Material,
INTERNAL_MASS_CONCRET,
Rough,
0.1,
1.4,
2100,
840,
0.9,
0.6,
0.6;
Material:AirGap,
CA_FACH_INTERIOR,
0.18;
WindowMaterial:Glazing,
01_GLASS_GRANDE_TZ6,
SpectralAverage,
,
0.004000,
0.871393,
7.779274e-002,
7.746061e-002,
0.905380,
0.081646,
0.081575,
0.000000,
0.84,
0.84,
1;
WindowMaterial:Glazing,
01_GLASS_GRANDE_TZ8,
SpectralAverage,
,
0.004000,
0.871393,
7.779274e-002,
7.746061e-002,
0.905380,
0.081646,
0.081575,
0.000000,
0.84,
0.84,
1;
WindowMaterial:Glazing,
01_GLASS_GRANDE_TZ9,
SpectralAverage,
,
0.004000,
0.871393,
7.779274e-002,
7.746061e-002,
0.905380,
0.081646,
0.081575,
0.000000,
0.84,
0.84,
1;
WindowMaterial:Glazing,
01_GLASS_GRANDE_TZ10,
SpectralAverage,
,
0.004000,
0.871393,
7.779274e-002,
7.746061e-002,
0.905380,
0.081646,
0.081575,
0.000000,
0.84,
0.84,
1;
WindowMaterial:Glazing,
01_GLASS_GRANDE_TZ11,
SpectralAverage,
,
0.004000,
0.871393,
7.779274e-002,
7.746061e-002,
0.905380,
0.081646,
0.081575,
0.000000,
0.84,
0.84,
1;
WindowMaterial:Glazing,
01_GLASS_GRANDE_TZ13,
SpectralAverage,
,
0.004000,
0.871393,
7.779274e-002,
7.746061e-002,
0.905380,
0.081646,
0.081575,
0.000000,
0.84,
0.84,
1;
WindowMaterial:Glazing,
02_GLASS_ALTA,
SpectralAverage,
,
0.004000,
0.871393,
7.779274e-002,
7.746061e-002,
0.905380,
0.081646,
0.081575,
0.000000,
0.84,
0.84,
1;
WindowMaterial:Glazing,
03_GLASS_NORTE,
SpectralAverage,
,
0.004000,
0.871393,
7.779274e-002,
7.746061e-002,
0.905380,
0.081646,
0.081575,
0.000000,
0.840000,
0.840000,
1.000000;
Construction,
VENT_GRANDE_TZ6,
01_GLASS_GRANDE_TZ6;
Construction,
VENT_GRANDE_TZ8,
01_GLASS_GRANDE_TZ8;
Construction,
VENT_GRANDE_TZ9,
01_GLASS_GRANDE_TZ9;
Construction,
VENT_GRANDE_TZ10,
01_GLASS_GRANDE_TZ10;
Construction,
VENT_GRANDE_TZ11,
01_GLASS_GRANDE_TZ11;
Construction,
VENT_GRANDE_TZ13,
01_GLASS_GRANDE_TZ13;
Construction,
02_VENT_ALTA,
02_GLASS_ALTA;
Construction,
03_VENT_NORTE,
03_GLASS_NORTE;
Construction,
Air Wall,
Air Wall Material;
Construction,
CUBIERTA_TZ7,
PANEL_SANDWICH_TZ7,
ACERO_ESTRUCTURAL;
Construction,
CUBIERTA_TZ8,
PANEL_SANDWICH_TZ8,
ACERO_ESTRUCTURAL;
Construction,
CUBIERTA_TZ9,
PANEL_SANDWICH_TZ9,
ACERO_ESTRUCTURAL;
Construction,
CUBIERTA_TZ10,
PANEL_SANDWICH_TZ10,
ACERO_ESTRUCTURAL;
Construction,
CUBIERTA_TZ11,
PANEL_SANDWICH_TZ11,
ACERO_ESTRUCTURAL;
Construction,
CUBIERTA_TZ12,
PANEL_SANDWICH_TZ12,
ACERO_ESTRUCTURAL;
Construction,
FACHADA_TZ1,
MORTERO_CEMENTO_FACHADA_TZ1,
LADRILLO_TRIPLE_HUECO,
EPS_AISLAMIENTO,
LADRILLO_TRIPLE_HUECO,
MORTERO_CEMENTO_FACHADA_TZ1;
Construction,
FACHADA_TZ2,
MORTERO_CEMENTO_FACHADA_TZ2,
LADRILLO_TRIPLE_HUECO,
EPS_AISLAMIENTO,
LADRILLO_TRIPLE_HUECO,
MORTERO_CEMENTO_FACHADA_TZ2;
Construction,
FACHADA_TZ3,
MORTERO_CEMENTO_FACHADA_TZ3,
LADRILLO_TRIPLE_HUECO,
EPS_AISLAMIENTO,
LADRILLO_TRIPLE_HUECO,
MORTERO_CEMENTO_FACHADA_TZ3;
Construction,
FACHADA_TZ4,
MORTERO_CEMENTO_FACHADA_TZ4,
LADRILLO_TRIPLE_HUECO,
EPS_AISLAMIENTO,
LADRILLO_TRIPLE_HUECO,
MORTERO_CEMENTO_FACHADA_TZ4;
Construction,
FACHADA_TZ5,
MORTERO_CEMENTO_FACHADA_TZ5,
LADRILLO_TRIPLE_HUECO,
EPS_AISLAMIENTO,
LADRILLO_TRIPLE_HUECO,
MORTERO_CEMENTO_FACHADA_TZ5;
Construction,
FACHADA_TZ6,
MORTERO_CEMENTO_FACHADA_TZ6,
LADRILLO_TRIPLE_HUECO,
EPS_AISLAMIENTO,
LADRILLO_TRIPLE_HUECO,
MORTERO_CEMENTO_FACHADA_TZ6;
Construction,
FACHADA_TZ7,
MORTERO_CEMENTO_FACHADA_TZ7,
LADRILLO_TRIPLE_HUECO,
EPS_AISLAMIENTO,
LADRILLO_TRIPLE_HUECO,
MORTERO_CEMENTO_FACHADA_TZ7;
Construction,
FACHADA_TZ8,
MORTERO_CEMENTO_FACHADA_TZ8,
LADRILLO_TRIPLE_HUECO,
EPS_AISLAMIENTO,
LADRILLO_TRIPLE_HUECO,
MORTERO_CEMENTO_FACHADA_TZ8;
Construction,
FACHADA_TZ9,
MORTERO_CEMENTO_FACHADA_TZ9,
LADRILLO_TRIPLE_HUECO,
EPS_AISLAMIENTO,
LADRILLO_TRIPLE_HUECO,
MORTERO_CEMENTO_FACHADA_TZ9;
Construction,
FACHADA_TZ10,
MORTERO_CEMENTO_FACHADA_TZ10,
LADRILLO_TRIPLE_HUECO,
EPS_AISLAMIENTO,
LADRILLO_TRIPLE_HUECO,
MORTERO_CEMENTO_FACHADA_TZ10;
Construction,
FACHADA_TZ11,
MORTERO_CEMENTO_FACHADA_TZ11,
LADRILLO_TRIPLE_HUECO,
EPS_AISLAMIENTO,
LADRILLO_TRIPLE_HUECO,
MORTERO_CEMENTO_FACHADA_TZ11;
Construction,
FACHADA_TZ12,
MORTERO_CEMENTO_FACHADA_TZ12,
LADRILLO_TRIPLE_HUECO,
EPS_AISLAMIENTO,
LADRILLO_TRIPLE_HUECO,
MORTERO_CEMENTO_FACHADA_TZ12;
Construction,
FACHADA_TZ13,
MORTERO_CEMENTO_FACHADA_TZ13,
LADRILLO_TRIPLE_HUECO,
EPS_AISLAMIENTO,
LADRILLO_TRIPLE_HUECO,
MORTERO_CEMENTO_FACHADA_TZ13;
Construction,
PILAR_TZ1,
MORTERO_CEMENTO_FACHADA_TZ1,
HORMIGON_ARMADO_PILAR,
MORTERO_CEMENTO_FACHADA_TZ1;
Construction,
PILAR_TZ2,
MORTERO_CEMENTO_FACHADA_TZ2,
HORMIGON_ARMADO_PILAR,
MORTERO_CEMENTO_FACHADA_TZ2;
Construction,
PILAR_TZ3,
MORTERO_CEMENTO_FACHADA_TZ3,
HORMIGON_ARMADO_PILAR,
MORTERO_CEMENTO_FACHADA_TZ3;
Construction,
PILAR_TZ4,
MORTERO_CEMENTO_FACHADA_TZ4,
HORMIGON_ARMADO_PILAR,
MORTERO_CEMENTO_FACHADA_TZ4;
Construction,
PILAR_TZ5,
MORTERO_CEMENTO_FACHADA_TZ5,
HORMIGON_ARMADO_PILAR,
MORTERO_CEMENTO_FACHADA_TZ5;
Construction,
PILAR_TZ6,
MORTERO_CEMENTO_FACHADA_TZ6,
HORMIGON_ARMADO_PILAR,
MORTERO_CEMENTO_FACHADA_TZ6;
Construction,
PILAR_TZ7,
MORTERO_CEMENTO_FACHADA_TZ7,
HORMIGON_ARMADO_PILAR,
MORTERO_CEMENTO_FACHADA_TZ7;
Construction,
PILAR_TZ8,
MORTERO_CEMENTO_FACHADA_TZ8,
HORMIGON_ARMADO_PILAR,
MORTERO_CEMENTO_FACHADA_TZ8;
Construction,
PILAR_TZ9,
MORTERO_CEMENTO_FACHADA_TZ9,
HORMIGON_ARMADO_PILAR,
MORTERO_CEMENTO_FACHADA_TZ9;
Construction,
PILAR_TZ10,
MORTERO_CEMENTO_FACHADA_TZ10,
HORMIGON_ARMADO_PILAR,
MORTERO_CEMENTO_FACHADA_TZ10;
Construction,
PILAR_TZ11,
MORTERO_CEMENTO_FACHADA_TZ11,
HORMIGON_ARMADO_PILAR,
MORTERO_CEMENTO_FACHADA_TZ11;
Construction,
PILAR_TZ12,
MORTERO_CEMENTO_FACHADA_TZ12,
HORMIGON_ARMADO_PILAR,
MORTERO_CEMENTO_FACHADA_TZ12;
Construction,
PILAR_TZ13,
MORTERO_CEMENTO_FACHADA_TZ13,
HORMIGON_ARMADO_PILAR,
MORTERO_CEMENTO_FACHADA_TZ13;
Construction,
PUERTA,
PUERTA;
Construction,
SUELO,
ACERO_ESTRUCTURAL,
HORMIGON_ARMADO_SUELO,
MORTERO_CEMENTO_SUELO,
MADERA_LAMINADA;
Construction,
SUELO_TERRENO,
GRAVA_30CM,
HORMIGON_ARMADO_TERRENO,
CEMENTO_PULIDO;
Construction,
TABIQUES_GENERAL,
MORTERO_YESO,
PANEL_YESO,
PANEL_YESO,
LANA_DE_ROCA,
PANEL_YESO,
PANEL_YESO,
MORTERO_YESO;
Construction,
TECHOS,
MADERA_LAMINADA,
MORTERO_CEMENTO_SUELO,
HORMIGON_ARMADO_SUELO,
ACERO_ESTRUCTURAL;
Construction,
FACHADA_INTERIOR,
MORTERO_CEMENTO_FACHADA_TZ13,
LADRILLO_TRIPLE_HUECO,
CA_FACH_INTERIOR,
LADRILLO_TRIPLE_HUECO,
MORTERO_CEMENTO_FACHADA_TZ13;
Construction,
INTERNAL_MASS_CONSTRUCTION,
INTERNAL_MASS_CONCRET;
GlobalGeometryRules,
UpperLeftCorner,
Counterclockwise,
Relative,
Relative,
Relative;
Zone,
TZ1,
-85.80317893714,
6.4528335884243,
-15.6391726661803,
0;
Zone,
TZ10,
-85.80317893714,
6.4528335884243,
-15.6391726661803,
3.10000000000001;
Zone,
TZ11,
-85.80317893714,
1.42126182651613,
-15.2699578035759,
3.10000000000001;
Zone,
TZ12,
-85.80317893714,
1.50631716083952,
-11.2905116674782,
6.4987;
Zone,
TZ13,
-85.80317893714,
-7.54975120735632,
0.553997932778144,
0;
Zone,
TZ2,
-85.80317893714,
6.62664288827676,
-13.2705411356791,
0;
Zone,
TZ3,
-85.80317893714,
-2.49833280651885,
0.183326731198034,
0;
Zone,
TZ4,
-85.80317893714,
7.55972439274784,
-0.554729761409138,
0;
Zone,
TZ5,
-85.80317893714,
6.85204610661173,
-10.1988000350711,
0;
Zone,
TZ6,
-85.80317893714,
8.66661519707137,
14.5297131433621,
0;
Zone,
TZ7,
-85.80317893714,
8.66661519707137,
14.5297131433621,
0;
Zone,
TZ8,
-85.80317893714,
7.19381007726898,
-5.54132245720127,
3.10000000000001;
Zone,
TZ9,
-85.80317893714,
6.4528335884243,
-15.6391726661803,
0;
ZoneList,
SILOBUILD_SPACE,
TZ1,
TZ10,
TZ11,
TZ12,
TZ13,
TZ2,
TZ3,
TZ4,
TZ5,
TZ6,
TZ7,
TZ8,
TZ9;
BuildingSurface:Detailed,
TZ1_E_FACH_1,
Wall,
FACHADA_TZ1,
TZ1,
Outdoors,
,
SunExposed,
WindExposed,
,
,
0.375,
0,
3.1,
0.375,
0,
0,
2.375,
0,
0,
2.375,
0,
3.1;
BuildingSurface:Detailed,
TZ1_E_PILAR_HORM,
Wall,
PILAR_TZ1,
TZ1,
Outdoors,
,
SunExposed,
WindExposed,
,
,
0,
0,
3.1,
0,
0,
0,
0.375,
0,
0,
0.375,
0,
3.1;
BuildingSurface:Detailed,
TZ1_E_TABIQUE_1,
Wall,
TABIQUES_GENERAL,
TZ1,
Surface,
TZ2_O_TAB_2,
NoSun,
NoWind,
,
,
2.375,
2.975,
3.1,
2.375,
2.975,
0,
3.475,
2.975,
0,
3.475,
2.975,
3.1;
BuildingSurface:Detailed,
TZ1_N_TABIQUE_1,
Wall,
TABIQUES_GENERAL,
TZ1,
Surface,
TZ2_S_TAB_2,
NoSun,
NoWind,
,
,
2.375,
0,
3.1,
2.375,
0,
0,
2.375,
2.975,
0,
2.375,
2.975,
3.1;
BuildingSurface:Detailed,
TZ1_N_TABIQUE_2,
Wall,
TABIQUES_GENERAL,
TZ1,
Surface,
TZ2_S_TAB_1,
NoSun,
NoWind,
,
,
3.475,
2.975,
3.1,
3.475,
2.975,
0,
3.475,
5.275,
0,
3.475,
5.275,
3.1;
BuildingSurface:Detailed,
TZ1_O_TABIQUE_1,
Wall,
TABIQUES_GENERAL,
TZ1,
Surface,
TZ3_E_TAB_1,
NoSun,
NoWind,
,
,
3.475,
5.275,
3.1,
3.475,
5.275,
0,
-7.21911419532262e-016,
5.275,
0,
-7.21911419532262e-016,
5.275,
3.1;
BuildingSurface:Detailed,
TZ1_SUELO_T_1,
Floor,
SUELO_TERRENO,
TZ1,
OtherSideCoefficients,
Des_Dir_TZ1_Ext_Temp,
NoSun,
NoWind,
,
,
3.475,
5.275,
0,
3.475,
2.975,
0,
2.375,
2.975,
0,
2.375,
0,
0,
0,
0,
0,
-7.21911419532262e-016,
5.275,
0;
BuildingSurface:Detailed,
TZ1_S_FACHADA_1,
Wall,
FACHADA_TZ1,
TZ1,
Outdoors,
,
SunExposed,
WindExposed,
,
,
-7.21911419532262e-016,
5.275,
3.1,
-7.21911419532262e-016,
5.275,
0,
0,
0,
0,
0,
0,
3.1;
BuildingSurface:Detailed,
TZ1_TECHO_1,
Ceiling,
TECHOS,
TZ1,
Surface,
TZ10_SUELO_2,
NoSun,
NoWind,
,
,
2.375,
0,
3.1,
2.375,
2.975,
3.1,
3.475,
2.975,
3.1,
3.475,
5.0451,
3.1,
-6.90448398612742e-016,
5.0451,
3.1,
0,
0,
3.1;
BuildingSurface:Detailed,
TZ1_TECHO_2,
Ceiling,
TECHOS,
TZ1,
Surface,
TZ11_SUELO_2,
NoSun,
NoWind,
,
,
3.475,
5.0451,
3.1,
3.475,
5.275,
3.1,
-7.21911419532262e-016,
5.275,
3.1,
-6.90448398612742e-016,
5.0451,
3.1;
BuildingSurface:Detailed,
TZ10_CUBIERTA_1,
Roof,
CUBIERTA_TZ10,
TZ10,
Outdoors,
,
SunExposed,
WindExposed,
,
,
-5.0695378254088e-016,
3.9951,
2.97406239931448,
6.95640744320864e-017,
6.35652350491906e-016,
1.6238,
4.925,
3.84383555525532e-015,
1.6238,
4.925,
3.9951,
2.97406239931448;
BuildingSurface:Detailed,
TZ10_CUBIERTA_2,
Roof,
CUBIERTA_TZ10,
TZ10,
Outdoors,
,
SunExposed,
WindExposed,
,
,
-3.87022110101241e-016,
5.0451,
3.32894100542702,
-5.0695378254088e-016,
3.9951,
2.97406239931448,
3.975,
3.9951,
2.97406239931448,
3.975,
5.0451,
3.32894100542702;
BuildingSurface:Detailed,
TZ10_E_FACH_1,
Wall,
FACHADA_TZ10,
TZ10,
Outdoors,
,
SunExposed,
WindExposed,
,
,
0.375,
3.25394043957096e-016,
1.6238,
0.375,
-1.5730644032674e-017,
-4.51437171943791e-034,
4.875,
-1.70562343995172e-016,
3.36270077610957e-033,
4.875,
1.70562343994598e-016,
1.6238;
BuildingSurface:Detailed,
TZ10_E_PILAR_1,
Wall,
PILAR_TZ10,
TZ10,
Outdoors,
,
SunExposed,
WindExposed,
,
,
6.95640744320864e-017,
5.17737374053275e-016,
1.6238,
-6.95640744320874e-017,
1.57878111633587e-016,
-5.18984029444518e-034,
0.375,
-2.50979312476325e-017,
1.5434427168338e-033,
0.375,
3.34761331172055e-016,
1.6238;
BuildingSurface:Detailed,
TZ10_E_PILAR_2,
Wall,
PILAR_TZ10,
TZ10,
Outdoors,
,
SunExposed,
WindExposed,
,
,
4.875,
1.13116902747518e-017,
1.6238,
4.875,
-1.13116902753258e-017,
-2.34052556075309e-034,
4.925,
4.03122394033136e-015,
2.12085747285069e-033,
4.925,
4.05384732088148e-015,
1.6238;
BuildingSurface:Detailed,
TZ10_N_TAB_1,
Wall,
TABIQUES_GENERAL,
TZ10,
Surface,
TZ9_S_TAB_5,
NoSun,
NoWind,
,
,
4.925,
3.9951,
2.97406239931448,
4.925,
3.90162213257277e-015,
1.6238,
4.925,
4.1834491286399e-015,
0,
4.925,
3.9951,
0;
BuildingSurface:Detailed,
TZ10_N_TAB_2,
Wall,
TABIQUES_GENERAL,
TZ10,
Surface,
TZ9_S_TAB_3 1,
NoSun,
NoWind,
,
,
3.975,
5.0451,
3.32894100542702,
3.975,
3.9951,
2.97406239931448,
3.975,
3.9951,
0,
3.975,
5.0451,
0;
BuildingSurface:Detailed,
TZ10_O_TAB_1,
Wall,
TABIQUES_GENERAL,
TZ10,
Surface,
TZ9_E_TAB_1,
NoSun,
NoWind,
,
,
4.925,
3.9951,
2.97406239931448,
4.925,
3.9951,
0,
3.975,
3.9951,
0,
3.975,
3.9951,
2.97406239931448;
BuildingSurface:Detailed,
TZ10_O_TAB_2,
Wall,
TABIQUES_GENERAL,
TZ10,
Surface,
TZ11_E_TAB_1,
NoSun,
NoWind,
,
,
3.975,
5.0451,
3.32894100542702,
3.975,
5.0451,
0,
-6.72247753507512e-016,
5.0451,
8.58393902989831e-048,
-3.87022110101241e-016,
5.0451,
3.32894100542702;
BuildingSurface:Detailed,
TZ10_SUELO_1,
Floor,
SUELO,
TZ10,
Surface,
TZ2_TECHO_1,
NoSun,
NoWind,
,
,
3.975,
5.0451,
0,
3.975,
3.9951,
0,
4.925,
3.9951,
0,
4.925,
4.1834491286399e-015,
0,
2.375,
2.16573425859679e-015,
0,
2.375,
2.975,
0,
3.475,
2.975,
0,
3.475,
5.0451,
0;
BuildingSurface:Detailed,
TZ10_SUELO_2,
Floor,
SUELO,
TZ10,
Surface,
TZ1_TECHO_1,
NoSun,
NoWind,
,
,
3.475,
5.0451,
-2.63654260817651e-048,
3.475,
2.975,
-1.71483419588951e-048,
2.375,
2.975,
2.52106888288864e-048,
2.375,
2.16573425859679e-015,
3.84568244095533e-048,
-6.95640744320874e-017,
1.55536289829848e-016,
1.29913822701354e-047,